<?xml version="1.0" encoding="UTF-8"?>

<!-- generated on 2022-05-24 16:25:29 by Eclipse SUMO netedit Version 1.10.0
<configuration xmlns:xsi="http://www.w3.org/2001/XMLSchema-instance" xsi:noNamespaceSchemaLocation="http://sumo.dlr.de/xsd/netconvertConfiguration.xsd">

    <input>
        <sumo-net-file value="Q/grid.net.xml"/>
    </input>

    <output>
        <output-file value="Q/grid.net.xml"/>
    </output>

    <processing>
        <geometry.min-radius.fix.railways value="false"/>
        <geometry.max-grade.fix value="false"/>
        <offset.disable-normalization value="true"/>
        <lefthand value="false"/>
    </processing>

    <junctions>
        <no-turnarounds value="true"/>
        <junctions.corner-detail value="5"/>
        <junctions.limit-turn-speed value="5.5"/>
        <rectangular-lane-cut value="false"/>
    </junctions>

    <pedestrian>
        <walkingareas value="false"/>
    </pedestrian>

    <report>
        <aggregate-warnings value="5"/>
    </report>

</configuration>
-->

<net version="1.9" junctionCornerDetail="5" limitTurnSpeed="5.50" xmlns:xsi="http://www.w3.org/2001/XMLSchema-instance" xsi:noNamespaceSchemaLocation="http://sumo.dlr.de/xsd/net_file.xsd">

    <location netOffset="0.00,0.00" convBoundary="0.00,0.00,950.00,700.00" origBoundary="0.00,0.00,950.00,700.00" projParameter="!"/>

    <edge id=":inner-11_0" function="internal">
        <lane id=":inner-11_0_0" index="0" speed="6.51" length="9.03" shape="95.20,610.40 94.85,607.95 93.80,606.20 92.05,605.15 89.60,604.80"/>
    </edge>
    <edge id=":inner-11_1" function="internal">
        <lane id=":inner-11_1_0" index="0" speed="16.70" length="20.80" shape="95.20,610.40 95.20,589.60"/>
        <lane id=":inner-11_1_1" index="1" speed="16.70" length="20.80" shape="98.40,610.40 98.40,589.60"/>
    </edge>
    <edge id=":inner-11_3" function="internal">
        <lane id=":inner-11_3_0" index="0" speed="9.84" length="8.68" shape="98.40,610.40 99.15,603.75 100.00,601.96"/>
        <lane id=":inner-11_3_1" index="1" speed="9.26" length="6.96" shape="98.40,610.40 99.15,605.15 100.00,603.73"/>
    </edge>
    <edge id=":inner-11_5" function="internal">
        <lane id=":inner-11_5_0" index="0" speed="3.65" length="2.34" shape="98.40,610.40 99.20,609.20 100.00,608.80"/>
    </edge>
    <edge id=":inner-11_24" function="internal">
        <lane id=":inner-11_24_0" index="0" speed="9.84" length="13.32" shape="100.00,601.96 101.40,599.00 105.15,596.15 110.40,595.20"/>
    </edge>
    <edge id=":inner-11_25" function="internal">
        <lane id=":inner-11_25_0" index="0" speed="9.26" length="12.40" shape="100.00,603.73 101.40,601.40 105.15,599.15 110.40,598.40"/>
    </edge>
    <edge id=":inner-11_26" function="internal">
        <lane id=":inner-11_26_0" index="0" speed="3.65" length="2.34" shape="100.00,608.80 100.80,609.20 101.60,610.40"/>
    </edge>
    <edge id=":inner-11_6" function="internal">
        <lane id=":inner-11_6_0" index="0" speed="6.51" length="9.03" shape="110.40,604.80 107.95,605.15 106.20,606.20 105.15,607.95 104.80,610.40"/>
    </edge>
    <edge id=":inner-11_7" function="internal">
        <lane id=":inner-11_7_0" index="0" speed="16.70" length="20.80" shape="110.40,604.80 89.60,604.80"/>
        <lane id=":inner-11_7_1" index="1" speed="16.70" length="20.80" shape="110.40,601.60 89.60,601.60"/>
    </edge>
    <edge id=":inner-11_9" function="internal">
        <lane id=":inner-11_9_0" index="0" speed="9.26" length="6.96" shape="110.40,601.60 105.15,600.85 103.73,600.00"/>
    </edge>
    <edge id=":inner-11_10" function="internal">
        <lane id=":inner-11_10_0" index="0" speed="3.65" length="2.34" shape="110.40,601.60 109.20,600.80 108.80,600.00"/>
    </edge>
    <edge id=":inner-11_27" function="internal">
        <lane id=":inner-11_27_0" index="0" speed="9.26" length="12.40" shape="103.73,600.00 101.40,598.60 99.15,594.85 98.40,589.60"/>
    </edge>
    <edge id=":inner-11_28" function="internal">
        <lane id=":inner-11_28_0" index="0" speed="3.65" length="2.34" shape="108.80,600.00 109.20,599.20 110.40,598.40"/>
    </edge>
    <edge id=":inner-11_11" function="internal">
        <lane id=":inner-11_11_0" index="0" speed="6.51" length="9.03" shape="104.80,589.60 105.15,592.05 106.20,593.80 107.95,594.85 110.40,595.20"/>
        <lane id=":inner-11_11_1" index="1" speed="7.33" length="11.73" shape="104.80,589.60 105.15,593.45 106.20,596.20 107.95,597.85 110.40,598.40"/>
    </edge>
    <edge id=":inner-11_13" function="internal">
        <lane id=":inner-11_13_0" index="0" speed="16.70" length="20.80" shape="104.80,589.60 104.80,610.40"/>
        <lane id=":inner-11_13_1" index="1" speed="16.70" length="20.80" shape="101.60,589.60 101.60,610.40"/>
    </edge>
    <edge id=":inner-11_15" function="internal">
        <lane id=":inner-11_15_0" index="0" speed="9.26" length="6.96" shape="101.60,589.60 100.85,594.85 100.00,596.27"/>
    </edge>
    <edge id=":inner-11_16" function="internal">
        <lane id=":inner-11_16_0" index="0" speed="3.65" length="2.34" shape="101.60,589.60 100.80,590.80 100.00,591.20"/>
    </edge>
    <edge id=":inner-11_29" function="internal">
        <lane id=":inner-11_29_0" index="0" speed="9.26" length="12.40" shape="100.00,596.27 98.60,598.60 94.85,600.85 89.60,601.60"/>
    </edge>
    <edge id=":inner-11_30" function="internal">
        <lane id=":inner-11_30_0" index="0" speed="3.65" length="2.34" shape="100.00,591.20 99.20,590.80 98.40,589.60"/>
    </edge>
    <edge id=":inner-11_17" function="internal">
        <lane id=":inner-11_17_0" index="0" speed="6.51" length="9.03" shape="89.60,595.20 92.05,594.85 93.80,593.80 94.85,592.05 95.20,589.60"/>
        <lane id=":inner-11_17_1" index="1" speed="7.33" length="11.73" shape="89.60,595.20 93.45,594.85 96.20,593.80 97.85,592.05 98.40,589.60"/>
    </edge>
    <edge id=":inner-11_19" function="internal">
        <lane id=":inner-11_19_0" index="0" speed="16.70" length="20.91" shape="89.60,595.20 110.40,595.20"/>
        <lane id=":inner-11_19_1" index="1" speed="16.70" length="20.91" shape="89.60,595.20 95.66,595.70 100.00,596.80 104.34,597.90 110.40,598.40"/>
        <lane id=":inner-11_19_2" index="2" speed="16.70" length="20.91" shape="89.60,598.40 110.40,598.40"/>
    </edge>
    <edge id=":inner-11_22" function="internal">
        <lane id=":inner-11_22_0" index="0" speed="9.26" length="6.96" shape="89.60,598.40 94.85,599.15 96.27,600.00"/>
    </edge>
    <edge id=":inner-11_23" function="internal">
        <lane id=":inner-11_23_0" index="0" speed="3.65" length="2.34" shape="89.60,598.40 90.80,599.20 91.20,600.00"/>
    </edge>
    <edge id=":inner-11_31" function="internal">
        <lane id=":inner-11_31_0" index="0" speed="9.26" length="12.40" shape="96.27,600.00 98.60,601.40 100.85,605.15 101.60,610.40"/>
    </edge>
    <edge id=":inner-11_32" function="internal">
        <lane id=":inner-11_32_0" index="0" speed="3.65" length="2.34" shape="91.20,600.00 90.80,600.80 89.60,601.60"/>
    </edge>
    <edge id=":inner-13_0" function="internal">
        <lane id=":inner-13_0_0" index="0" speed="6.51" length="9.03" shape="345.20,610.40 344.85,607.95 343.80,606.20 342.05,605.15 339.60,604.80"/>
    </edge>
    <edge id=":inner-13_1" function="internal">
        <lane id=":inner-13_1_0" index="0" speed="16.70" length="20.80" shape="345.20,610.40 345.20,589.60"/>
        <lane id=":inner-13_1_1" index="1" speed="16.70" length="20.80" shape="348.40,610.40 348.40,589.60"/>
    </edge>
    <edge id=":inner-13_3" function="internal">
        <lane id=":inner-13_3_0" index="0" speed="9.26" length="6.96" shape="348.40,610.40 349.15,605.15 350.00,603.73"/>
    </edge>
    <edge id=":inner-13_4" function="internal">
        <lane id=":inner-13_4_0" index="0" speed="3.65" length="2.34" shape="348.40,610.40 349.20,609.20 350.00,608.80"/>
    </edge>
    <edge id=":inner-13_20" function="internal">
        <lane id=":inner-13_20_0" index="0" speed="9.26" length="12.40" shape="350.00,603.73 351.40,601.40 355.15,599.15 360.40,598.40"/>
    </edge>
    <edge id=":inner-13_21" function="internal">
        <lane id=":inner-13_21_0" index="0" speed="3.65" length="2.34" shape="350.00,608.80 350.80,609.20 351.60,610.40"/>
    </edge>
    <edge id=":inner-13_5" function="internal">
        <lane id=":inner-13_5_0" index="0" speed="6.51" length="9.03" shape="360.40,604.80 357.95,605.15 356.20,606.20 355.15,607.95 354.80,610.40"/>
    </edge>
    <edge id=":inner-13_6" function="internal">
        <lane id=":inner-13_6_0" index="0" speed="16.70" length="20.80" shape="360.40,604.80 339.60,604.80"/>
        <lane id=":inner-13_6_1" index="1" speed="16.70" length="20.80" shape="360.40,601.60 339.60,601.60"/>
    </edge>
    <edge id=":inner-13_8" function="internal">
        <lane id=":inner-13_8_0" index="0" speed="9.26" length="6.96" shape="360.40,601.60 355.15,600.85 353.73,600.00"/>
    </edge>
    <edge id=":inner-13_9" function="internal">
        <lane id=":inner-13_9_0" index="0" speed="3.65" length="2.34" shape="360.40,601.60 359.20,600.80 358.80,600.00"/>
    </edge>
    <edge id=":inner-13_22" function="internal">
        <lane id=":inner-13_22_0" index="0" speed="9.26" length="12.40" shape="353.73,600.00 351.40,598.60 349.15,594.85 348.40,589.60"/>
    </edge>
    <edge id=":inner-13_23" function="internal">
        <lane id=":inner-13_23_0" index="0" speed="3.65" length="2.34" shape="358.80,600.00 359.20,599.20 360.40,598.40"/>
    </edge>
    <edge id=":inner-13_10" function="internal">
        <lane id=":inner-13_10_0" index="0" speed="6.51" length="9.03" shape="354.80,589.60 355.15,592.05 356.20,593.80 357.95,594.85 360.40,595.20"/>
    </edge>
    <edge id=":inner-13_11" function="internal">
        <lane id=":inner-13_11_0" index="0" speed="16.70" length="20.80" shape="354.80,589.60 354.80,610.40"/>
        <lane id=":inner-13_11_1" index="1" speed="16.70" length="20.80" shape="351.60,589.60 351.60,610.40"/>
    </edge>
    <edge id=":inner-13_13" function="internal">
        <lane id=":inner-13_13_0" index="0" speed="9.26" length="6.96" shape="351.60,589.60 350.85,594.85 350.00,596.27"/>
    </edge>
    <edge id=":inner-13_14" function="internal">
        <lane id=":inner-13_14_0" index="0" speed="3.65" length="2.34" shape="351.60,589.60 350.80,590.80 350.00,591.20"/>
    </edge>
    <edge id=":inner-13_24" function="internal">
        <lane id=":inner-13_24_0" index="0" speed="9.26" length="12.40" shape="350.00,596.27 348.60,598.60 344.85,600.85 339.60,601.60"/>
    </edge>
    <edge id=":inner-13_25" function="internal">
        <lane id=":inner-13_25_0" index="0" speed="3.65" length="2.34" shape="350.00,591.20 349.20,590.80 348.40,589.60"/>
    </edge>
    <edge id=":inner-13_15" function="internal">
        <lane id=":inner-13_15_0" index="0" speed="6.51" length="9.03" shape="339.60,595.20 342.05,594.85 343.80,593.80 344.85,592.05 345.20,589.60"/>
    </edge>
    <edge id=":inner-13_16" function="internal">
        <lane id=":inner-13_16_0" index="0" speed="16.70" length="20.80" shape="339.60,595.20 360.40,595.20"/>
        <lane id=":inner-13_16_1" index="1" speed="16.70" length="20.80" shape="339.60,598.40 360.40,598.40"/>
    </edge>
    <edge id=":inner-13_18" function="internal">
        <lane id=":inner-13_18_0" index="0" speed="9.26" length="6.96" shape="339.60,598.40 344.85,599.15 346.27,600.00"/>
    </edge>
    <edge id=":inner-13_19" function="internal">
        <lane id=":inner-13_19_0" index="0" speed="3.65" length="2.34" shape="339.60,598.40 340.80,599.20 341.20,600.00"/>
    </edge>
    <edge id=":inner-13_26" function="internal">
        <lane id=":inner-13_26_0" index="0" speed="9.26" length="12.40" shape="346.27,600.00 348.60,601.40 350.85,605.15 351.60,610.40"/>
    </edge>
    <edge id=":inner-13_27" function="internal">
        <lane id=":inner-13_27_0" index="0" speed="3.65" length="2.34" shape="341.20,600.00 340.80,600.80 339.60,601.60"/>
    </edge>
    <edge id=":inner-15_0" function="internal">
        <lane id=":inner-15_0_0" index="0" speed="6.51" length="9.03" shape="595.20,610.40 594.85,607.95 593.80,606.20 592.05,605.15 589.60,604.80"/>
    </edge>
    <edge id=":inner-15_1" function="internal">
        <lane id=":inner-15_1_0" index="0" speed="16.70" length="20.80" shape="595.20,610.40 595.20,589.60"/>
        <lane id=":inner-15_1_1" index="1" speed="16.70" length="20.80" shape="598.40,610.40 598.40,589.60"/>
    </edge>
    <edge id=":inner-15_3" function="internal">
        <lane id=":inner-15_3_0" index="0" speed="9.26" length="6.96" shape="598.40,610.40 599.15,605.15 600.00,603.73"/>
    </edge>
    <edge id=":inner-15_4" function="internal">
        <lane id=":inner-15_4_0" index="0" speed="3.65" length="2.34" shape="598.40,610.40 599.20,609.20 600.00,608.80"/>
    </edge>
    <edge id=":inner-15_20" function="internal">
        <lane id=":inner-15_20_0" index="0" speed="9.26" length="12.40" shape="600.00,603.73 601.40,601.40 605.15,599.15 610.40,598.40"/>
    </edge>
    <edge id=":inner-15_21" function="internal">
        <lane id=":inner-15_21_0" index="0" speed="3.65" length="2.34" shape="600.00,608.80 600.80,609.20 601.60,610.40"/>
    </edge>
    <edge id=":inner-15_5" function="internal">
        <lane id=":inner-15_5_0" index="0" speed="6.51" length="9.03" shape="610.40,604.80 607.95,605.15 606.20,606.20 605.15,607.95 604.80,610.40"/>
    </edge>
    <edge id=":inner-15_6" function="internal">
        <lane id=":inner-15_6_0" index="0" speed="16.70" length="20.80" shape="610.40,604.80 589.60,604.80"/>
        <lane id=":inner-15_6_1" index="1" speed="16.70" length="20.80" shape="610.40,601.60 589.60,601.60"/>
    </edge>
    <edge id=":inner-15_8" function="internal">
        <lane id=":inner-15_8_0" index="0" speed="9.26" length="6.96" shape="610.40,601.60 605.15,600.85 603.73,600.00"/>
    </edge>
    <edge id=":inner-15_9" function="internal">
        <lane id=":inner-15_9_0" index="0" speed="3.65" length="2.34" shape="610.40,601.60 609.20,600.80 608.80,600.00"/>
    </edge>
    <edge id=":inner-15_22" function="internal">
        <lane id=":inner-15_22_0" index="0" speed="9.26" length="12.40" shape="603.73,600.00 601.40,598.60 599.15,594.85 598.40,589.60"/>
    </edge>
    <edge id=":inner-15_23" function="internal">
        <lane id=":inner-15_23_0" index="0" speed="3.65" length="2.34" shape="608.80,600.00 609.20,599.20 610.40,598.40"/>
    </edge>
    <edge id=":inner-15_10" function="internal">
        <lane id=":inner-15_10_0" index="0" speed="6.51" length="9.03" shape="604.80,589.60 605.15,592.05 606.20,593.80 607.95,594.85 610.40,595.20"/>
    </edge>
    <edge id=":inner-15_11" function="internal">
        <lane id=":inner-15_11_0" index="0" speed="16.70" length="20.80" shape="604.80,589.60 604.80,610.40"/>
        <lane id=":inner-15_11_1" index="1" speed="16.70" length="20.80" shape="601.60,589.60 601.60,610.40"/>
    </edge>
    <edge id=":inner-15_13" function="internal">
        <lane id=":inner-15_13_0" index="0" speed="9.26" length="6.96" shape="601.60,589.60 600.85,594.85 600.00,596.27"/>
    </edge>
    <edge id=":inner-15_14" function="internal">
        <lane id=":inner-15_14_0" index="0" speed="3.65" length="2.34" shape="601.60,589.60 600.80,590.80 600.00,591.20"/>
    </edge>
    <edge id=":inner-15_24" function="internal">
        <lane id=":inner-15_24_0" index="0" speed="9.26" length="12.40" shape="600.00,596.27 598.60,598.60 594.85,600.85 589.60,601.60"/>
    </edge>
    <edge id=":inner-15_25" function="internal">
        <lane id=":inner-15_25_0" index="0" speed="3.65" length="2.34" shape="600.00,591.20 599.20,590.80 598.40,589.60"/>
    </edge>
    <edge id=":inner-15_15" function="internal">
        <lane id=":inner-15_15_0" index="0" speed="6.51" length="9.03" shape="589.60,595.20 592.05,594.85 593.80,593.80 594.85,592.05 595.20,589.60"/>
    </edge>
    <edge id=":inner-15_16" function="internal">
        <lane id=":inner-15_16_0" index="0" speed="16.70" length="20.80" shape="589.60,595.20 610.40,595.20"/>
        <lane id=":inner-15_16_1" index="1" speed="16.70" length="20.80" shape="589.60,598.40 610.40,598.40"/>
    </edge>
    <edge id=":inner-15_18" function="internal">
        <lane id=":inner-15_18_0" index="0" speed="9.26" length="6.96" shape="589.60,598.40 594.85,599.15 596.27,600.00"/>
    </edge>
    <edge id=":inner-15_19" function="internal">
        <lane id=":inner-15_19_0" index="0" speed="3.65" length="2.34" shape="589.60,598.40 590.80,599.20 591.20,600.00"/>
    </edge>
    <edge id=":inner-15_26" function="internal">
        <lane id=":inner-15_26_0" index="0" speed="9.26" length="12.40" shape="596.27,600.00 598.60,601.40 600.85,605.15 601.60,610.40"/>
    </edge>
    <edge id=":inner-15_27" function="internal">
        <lane id=":inner-15_27_0" index="0" speed="3.65" length="2.34" shape="591.20,600.00 590.80,600.80 589.60,601.60"/>
    </edge>
    <edge id=":inner-17_0" function="internal">
        <lane id=":inner-17_0_0" index="0" speed="6.51" length="9.03" shape="845.20,610.40 844.85,607.95 843.80,606.20 842.05,605.15 839.60,604.80"/>
    </edge>
    <edge id=":inner-17_1" function="internal">
        <lane id=":inner-17_1_0" index="0" speed="16.70" length="20.80" shape="845.20,610.40 845.20,589.60"/>
        <lane id=":inner-17_1_1" index="1" speed="16.70" length="20.80" shape="848.40,610.40 848.40,589.60"/>
    </edge>
    <edge id=":inner-17_3" function="internal">
        <lane id=":inner-17_3_0" index="0" speed="9.26" length="6.96" shape="848.40,610.40 849.15,605.15 850.00,603.73"/>
    </edge>
    <edge id=":inner-17_4" function="internal">
        <lane id=":inner-17_4_0" index="0" speed="3.65" length="2.34" shape="848.40,610.40 849.20,609.20 850.00,608.80"/>
    </edge>
    <edge id=":inner-17_20" function="internal">
        <lane id=":inner-17_20_0" index="0" speed="9.26" length="12.40" shape="850.00,603.73 851.40,601.40 855.15,599.15 860.40,598.40"/>
    </edge>
    <edge id=":inner-17_21" function="internal">
        <lane id=":inner-17_21_0" index="0" speed="3.65" length="2.34" shape="850.00,608.80 850.80,609.20 851.60,610.40"/>
    </edge>
    <edge id=":inner-17_5" function="internal">
        <lane id=":inner-17_5_0" index="0" speed="6.51" length="9.03" shape="860.40,604.80 857.95,605.15 856.20,606.20 855.15,607.95 854.80,610.40"/>
    </edge>
    <edge id=":inner-17_6" function="internal">
        <lane id=":inner-17_6_0" index="0" speed="16.70" length="20.80" shape="860.40,604.80 839.60,604.80"/>
        <lane id=":inner-17_6_1" index="1" speed="16.70" length="20.80" shape="860.40,601.60 839.60,601.60"/>
    </edge>
    <edge id=":inner-17_8" function="internal">
        <lane id=":inner-17_8_0" index="0" speed="9.26" length="6.96" shape="860.40,601.60 855.15,600.85 853.73,600.00"/>
    </edge>
    <edge id=":inner-17_9" function="internal">
        <lane id=":inner-17_9_0" index="0" speed="3.65" length="2.34" shape="860.40,601.60 859.20,600.80 858.80,600.00"/>
    </edge>
    <edge id=":inner-17_22" function="internal">
        <lane id=":inner-17_22_0" index="0" speed="9.26" length="12.40" shape="853.73,600.00 851.40,598.60 849.15,594.85 848.40,589.60"/>
    </edge>
    <edge id=":inner-17_23" function="internal">
        <lane id=":inner-17_23_0" index="0" speed="3.65" length="2.34" shape="858.80,600.00 859.20,599.20 860.40,598.40"/>
    </edge>
    <edge id=":inner-17_10" function="internal">
        <lane id=":inner-17_10_0" index="0" speed="6.51" length="9.03" shape="854.80,589.60 855.15,592.05 856.20,593.80 857.95,594.85 860.40,595.20"/>
    </edge>
    <edge id=":inner-17_11" function="internal">
        <lane id=":inner-17_11_0" index="0" speed="16.70" length="20.80" shape="854.80,589.60 854.80,610.40"/>
        <lane id=":inner-17_11_1" index="1" speed="16.70" length="20.80" shape="851.60,589.60 851.60,610.40"/>
    </edge>
    <edge id=":inner-17_13" function="internal">
        <lane id=":inner-17_13_0" index="0" speed="9.26" length="6.96" shape="851.60,589.60 850.85,594.85 850.00,596.27"/>
    </edge>
    <edge id=":inner-17_14" function="internal">
        <lane id=":inner-17_14_0" index="0" speed="3.65" length="2.34" shape="851.60,589.60 850.80,590.80 850.00,591.20"/>
    </edge>
    <edge id=":inner-17_24" function="internal">
        <lane id=":inner-17_24_0" index="0" speed="9.26" length="12.40" shape="850.00,596.27 848.60,598.60 844.85,600.85 839.60,601.60"/>
    </edge>
    <edge id=":inner-17_25" function="internal">
        <lane id=":inner-17_25_0" index="0" speed="3.65" length="2.34" shape="850.00,591.20 849.20,590.80 848.40,589.60"/>
    </edge>
    <edge id=":inner-17_15" function="internal">
        <lane id=":inner-17_15_0" index="0" speed="6.51" length="9.03" shape="839.60,595.20 842.05,594.85 843.80,593.80 844.85,592.05 845.20,589.60"/>
    </edge>
    <edge id=":inner-17_16" function="internal">
        <lane id=":inner-17_16_0" index="0" speed="16.70" length="20.80" shape="839.60,595.20 860.40,595.20"/>
        <lane id=":inner-17_16_1" index="1" speed="16.70" length="20.80" shape="839.60,598.40 860.40,598.40"/>
    </edge>
    <edge id=":inner-17_18" function="internal">
        <lane id=":inner-17_18_0" index="0" speed="9.26" length="6.96" shape="839.60,598.40 844.85,599.15 846.27,600.00"/>
    </edge>
    <edge id=":inner-17_19" function="internal">
        <lane id=":inner-17_19_0" index="0" speed="3.65" length="2.34" shape="839.60,598.40 840.80,599.20 841.20,600.00"/>
    </edge>
    <edge id=":inner-17_26" function="internal">
        <lane id=":inner-17_26_0" index="0" speed="9.26" length="12.40" shape="846.27,600.00 848.60,601.40 850.85,605.15 851.60,610.40"/>
    </edge>
    <edge id=":inner-17_27" function="internal">
        <lane id=":inner-17_27_0" index="0" speed="3.65" length="2.34" shape="841.20,600.00 840.80,600.80 839.60,601.60"/>
    </edge>
    <edge id=":inner-31_0" function="internal">
        <lane id=":inner-31_0_0" index="0" speed="6.51" length="9.03" shape="95.20,110.40 94.85,107.95 93.80,106.20 92.05,105.15 89.60,104.80"/>
    </edge>
    <edge id=":inner-31_1" function="internal">
        <lane id=":inner-31_1_0" index="0" speed="16.70" length="20.80" shape="95.20,110.40 95.20,89.60"/>
        <lane id=":inner-31_1_1" index="1" speed="16.70" length="20.80" shape="98.40,110.40 98.40,89.60"/>
    </edge>
    <edge id=":inner-31_3" function="internal">
        <lane id=":inner-31_3_0" index="0" speed="9.26" length="6.96" shape="98.40,110.40 99.15,105.15 100.00,103.73"/>
    </edge>
    <edge id=":inner-31_4" function="internal">
        <lane id=":inner-31_4_0" index="0" speed="3.65" length="2.34" shape="98.40,110.40 99.20,109.20 100.00,108.80"/>
    </edge>
    <edge id=":inner-31_20" function="internal">
        <lane id=":inner-31_20_0" index="0" speed="9.26" length="12.40" shape="100.00,103.73 101.40,101.40 105.15,99.15 110.40,98.40"/>
    </edge>
    <edge id=":inner-31_21" function="internal">
        <lane id=":inner-31_21_0" index="0" speed="3.65" length="2.34" shape="100.00,108.80 100.80,109.20 101.60,110.40"/>
    </edge>
    <edge id=":inner-31_5" function="internal">
        <lane id=":inner-31_5_0" index="0" speed="6.51" length="9.03" shape="110.40,104.80 107.95,105.15 106.20,106.20 105.15,107.95 104.80,110.40"/>
    </edge>
    <edge id=":inner-31_6" function="internal">
        <lane id=":inner-31_6_0" index="0" speed="16.70" length="20.80" shape="110.40,104.80 89.60,104.80"/>
        <lane id=":inner-31_6_1" index="1" speed="16.70" length="20.80" shape="110.40,101.60 89.60,101.60"/>
    </edge>
    <edge id=":inner-31_8" function="internal">
        <lane id=":inner-31_8_0" index="0" speed="9.26" length="6.96" shape="110.40,101.60 105.15,100.85 103.73,100.00"/>
    </edge>
    <edge id=":inner-31_9" function="internal">
        <lane id=":inner-31_9_0" index="0" speed="3.65" length="2.34" shape="110.40,101.60 109.20,100.80 108.80,100.00"/>
    </edge>
    <edge id=":inner-31_22" function="internal">
        <lane id=":inner-31_22_0" index="0" speed="9.26" length="12.40" shape="103.73,100.00 101.40,98.60 99.15,94.85 98.40,89.60"/>
    </edge>
    <edge id=":inner-31_23" function="internal">
        <lane id=":inner-31_23_0" index="0" speed="3.65" length="2.34" shape="108.80,100.00 109.20,99.20 110.40,98.40"/>
    </edge>
    <edge id=":inner-31_10" function="internal">
        <lane id=":inner-31_10_0" index="0" speed="6.51" length="9.03" shape="104.80,89.60 105.15,92.05 106.20,93.80 107.95,94.85 110.40,95.20"/>
    </edge>
    <edge id=":inner-31_11" function="internal">
        <lane id=":inner-31_11_0" index="0" speed="16.70" length="20.80" shape="104.80,89.60 104.80,110.40"/>
        <lane id=":inner-31_11_1" index="1" speed="16.70" length="20.80" shape="101.60,89.60 101.60,110.40"/>
    </edge>
    <edge id=":inner-31_13" function="internal">
        <lane id=":inner-31_13_0" index="0" speed="9.26" length="6.96" shape="101.60,89.60 100.85,94.85 100.00,96.27"/>
    </edge>
    <edge id=":inner-31_14" function="internal">
        <lane id=":inner-31_14_0" index="0" speed="3.65" length="2.34" shape="101.60,89.60 100.80,90.80 100.00,91.20"/>
    </edge>
    <edge id=":inner-31_24" function="internal">
        <lane id=":inner-31_24_0" index="0" speed="9.26" length="12.40" shape="100.00,96.27 98.60,98.60 94.85,100.85 89.60,101.60"/>
    </edge>
    <edge id=":inner-31_25" function="internal">
        <lane id=":inner-31_25_0" index="0" speed="3.65" length="2.34" shape="100.00,91.20 99.20,90.80 98.40,89.60"/>
    </edge>
    <edge id=":inner-31_15" function="internal">
        <lane id=":inner-31_15_0" index="0" speed="6.51" length="9.03" shape="89.60,95.20 92.05,94.85 93.80,93.80 94.85,92.05 95.20,89.60"/>
    </edge>
    <edge id=":inner-31_16" function="internal">
        <lane id=":inner-31_16_0" index="0" speed="16.70" length="20.80" shape="89.60,95.20 110.40,95.20"/>
        <lane id=":inner-31_16_1" index="1" speed="16.70" length="20.80" shape="89.60,98.40 110.40,98.40"/>
    </edge>
    <edge id=":inner-31_18" function="internal">
        <lane id=":inner-31_18_0" index="0" speed="9.26" length="6.96" shape="89.60,98.40 94.85,99.15 96.27,100.00"/>
    </edge>
    <edge id=":inner-31_19" function="internal">
        <lane id=":inner-31_19_0" index="0" speed="3.65" length="2.34" shape="89.60,98.40 90.80,99.20 91.20,100.00"/>
    </edge>
    <edge id=":inner-31_26" function="internal">
        <lane id=":inner-31_26_0" index="0" speed="9.26" length="12.40" shape="96.27,100.00 98.60,101.40 100.85,105.15 101.60,110.40"/>
    </edge>
    <edge id=":inner-31_27" function="internal">
        <lane id=":inner-31_27_0" index="0" speed="3.65" length="2.34" shape="91.20,100.00 90.80,100.80 89.60,101.60"/>
    </edge>
    <edge id=":inner-33_0" function="internal">
        <lane id=":inner-33_0_0" index="0" speed="6.51" length="9.03" shape="345.20,110.40 344.85,107.95 343.80,106.20 342.05,105.15 339.60,104.80"/>
    </edge>
    <edge id=":inner-33_1" function="internal">
        <lane id=":inner-33_1_0" index="0" speed="16.70" length="20.80" shape="345.20,110.40 345.20,89.60"/>
        <lane id=":inner-33_1_1" index="1" speed="16.70" length="20.80" shape="348.40,110.40 348.40,89.60"/>
    </edge>
    <edge id=":inner-33_3" function="internal">
        <lane id=":inner-33_3_0" index="0" speed="9.26" length="6.96" shape="348.40,110.40 349.15,105.15 350.00,103.73"/>
    </edge>
    <edge id=":inner-33_4" function="internal">
        <lane id=":inner-33_4_0" index="0" speed="3.65" length="2.34" shape="348.40,110.40 349.20,109.20 350.00,108.80"/>
    </edge>
    <edge id=":inner-33_20" function="internal">
        <lane id=":inner-33_20_0" index="0" speed="9.26" length="12.40" shape="350.00,103.73 351.40,101.40 355.15,99.15 360.40,98.40"/>
    </edge>
    <edge id=":inner-33_21" function="internal">
        <lane id=":inner-33_21_0" index="0" speed="3.65" length="2.34" shape="350.00,108.80 350.80,109.20 351.60,110.40"/>
    </edge>
    <edge id=":inner-33_5" function="internal">
        <lane id=":inner-33_5_0" index="0" speed="6.51" length="9.03" shape="360.40,104.80 357.95,105.15 356.20,106.20 355.15,107.95 354.80,110.40"/>
    </edge>
    <edge id=":inner-33_6" function="internal">
        <lane id=":inner-33_6_0" index="0" speed="16.70" length="20.80" shape="360.40,104.80 339.60,104.80"/>
        <lane id=":inner-33_6_1" index="1" speed="16.70" length="20.80" shape="360.40,101.60 339.60,101.60"/>
    </edge>
    <edge id=":inner-33_8" function="internal">
        <lane id=":inner-33_8_0" index="0" speed="9.26" length="6.96" shape="360.40,101.60 355.15,100.85 353.73,100.00"/>
    </edge>
    <edge id=":inner-33_9" function="internal">
        <lane id=":inner-33_9_0" index="0" speed="3.65" length="2.34" shape="360.40,101.60 359.20,100.80 358.80,100.00"/>
    </edge>
    <edge id=":inner-33_22" function="internal">
        <lane id=":inner-33_22_0" index="0" speed="9.26" length="12.40" shape="353.73,100.00 351.40,98.60 349.15,94.85 348.40,89.60"/>
    </edge>
    <edge id=":inner-33_23" function="internal">
        <lane id=":inner-33_23_0" index="0" speed="3.65" length="2.34" shape="358.80,100.00 359.20,99.20 360.40,98.40"/>
    </edge>
    <edge id=":inner-33_10" function="internal">
        <lane id=":inner-33_10_0" index="0" speed="6.51" length="9.03" shape="354.80,89.60 355.15,92.05 356.20,93.80 357.95,94.85 360.40,95.20"/>
    </edge>
    <edge id=":inner-33_11" function="internal">
        <lane id=":inner-33_11_0" index="0" speed="16.70" length="20.80" shape="354.80,89.60 354.80,110.40"/>
        <lane id=":inner-33_11_1" index="1" speed="16.70" length="20.80" shape="351.60,89.60 351.60,110.40"/>
    </edge>
    <edge id=":inner-33_13" function="internal">
        <lane id=":inner-33_13_0" index="0" speed="9.26" length="6.96" shape="351.60,89.60 350.85,94.85 350.00,96.27"/>
    </edge>